# BAS6 package for  MODFLOW-2005, generated by Flopy.
 FREE
INTERNAL               1    (10I10) -1 #ibound layer 1                
        -1         1         1         1         1         1         1         1         1        -1
        -1         1         1         1         1         1         1         1         1        -1
        -1         1         1         1         1         1         1         1         1        -1
        -1         1         1         1         1         1         1         1         1        -1
        -1         1         1         1         1         1         1         1         1        -1
        -1         1         1         1         1         1         1         1         1        -1
        -1         1         1         1         1         1         1         1         1        -1
        -1         1         1         1         1         1         1         1         1        -1
        -1         1         1         1         1         1         1         1         1        -1
        -1         1         1         1         1         1         1         1         1        -1
        -999.99
INTERNAL               1  (10E15.6) -1 #strt layer 1                  
   1.000000E+01   1.000000E+00   1.000000E+00   1.000000E+00   1.000000E+00   1.000000E+00   1.000000E+00   1.000000E+00   1.000000E+00   1.000000E+01
   1.000000E+01   1.000000E+00   1.000000E+00   1.000000E+00   1.000000E+00   1.000000E+00   1.000000E+00   1.000000E+00   1.000000E+00   8.888889E+00
   1.000000E+01   1.000000E+00   1.000000E+00   1.000000E+00   1.000000E+00   1.000000E+00   1.000000E+00   1.000000E+00   1.000000E+00   7.777778E+00
   1.000000E+01   1.000000E+00   1.000000E+00   1.000000E+00   1.000000E+00   1.000000E+00   1.000000E+00   1.000000E+00   1.000000E+00   6.666667E+00
   1.000000E+01   1.000000E+00   1.000000E+00   1.000000E+00   1.000000E+00   1.000000E+00   1.000000E+00   1.000000E+00   1.000000E+00   5.555555E+00
   1.000000E+01   1.000000E+00   1.000000E+00   1.000000E+00   1.000000E+00   1.000000E+00   1.000000E+00   1.000000E+00   1.000000E+00   4.444445E+00
   1.000000E+01   1.000000E+00   1.000000E+00   1.000000E+00   1.000000E+00   1.000000E+00   1.000000E+00   1.000000E+00   1.000000E+00   3.333333E+00
   1.000000E+01   1.000000E+00   1.000000E+00   1.000000E+00   1.000000E+00   1.000000E+00   1.000000E+00   1.000000E+00   1.000000E+00   2.222222E+00
   1.000000E+01   1.000000E+00   1.000000E+00   1.000000E+00   1.000000E+00   1.000000E+00   1.000000E+00   1.000000E+00   1.000000E+00   2.000000E+00
   1.000000E+01   1.000000E+00   1.000000E+00   1.000000E+00   1.000000E+00   1.000000E+00   1.000000E+00   1.000000E+00   1.000000E+00   2.000000E+00
