# Name file for MODFLOW-2005, generated by Flopy.
#xul:0; yul:1000; rotation:0; proj4_str:+init=EPSG:4326; units:meters; lenuni:2 ;start_datetime:1-1-1970
LIST           2 tutorial1.list
DIS           11 tutorial1.dis 
BAS6          13 tutorial1.bas 
LPF           15 tutorial1.lpf 
OC            14 tutorial1.oc 
DATA(BINARY)  51 tutorial1.hds REPLACE
DATA(BINARY)  52 tutorial1.ddn REPLACE
DATA(BINARY)  53 tutorial1.cbc REPLACE
PCG           27 tutorial1.pcg 
