# Well file for MODFLOW, generated by Flopy.
         1         0
         1         0 # stress period 0
         1         5         5   0.0000000E+00
         1         0 # stress period 1
         1         5         5   0.0000000E+00
         1         0 # stress period 2
         1         5         5  -5.0000000E+02
